# opt=loose b3lyp scrf=(solvent=water) def2svp em=gd3bj


MODEL        1

0 1
 C(PDBName=C1,ResName=RCX,ResNum=601_B)               31.75300000   22.64900000  138.12700000
 C(PDBName=C2,ResName=RCX,ResNum=601_B)               30.87300000   22.07800000  139.11900000
 C(PDBName=C3,ResName=RCX,ResNum=601_B)               31.71400000   21.65900000  140.16300000
 C(PDBName=C4,ResName=RCX,ResNum=601_B)               33.04400000   22.52500000  138.66600000
 O(PDBName=O5,ResName=RCX,ResNum=601_B)               32.97100000   21.94100000  139.85500000
 O(PDBName=O6,ResName=RCX,ResNum=601_B)               34.22000000   22.95600000  138.04200000
 C(PDBName=C7,ResName=RCX,ResNum=601_B)               31.40900000   23.28400000  136.75400000
 C(PDBName=C8,ResName=RCX,ResNum=601_B)               30.76500000   22.54400000  135.76600000
 C(PDBName=C9,ResName=RCX,ResNum=601_B)               30.47000000   23.14100000  134.53100000
 C(PDBName=C10,ResName=RCX,ResNum=601_B)              30.82500000   24.46700000  134.28600000
 C(PDBName=C11,ResName=RCX,ResNum=601_B)              31.47400000   25.20400000  135.27200000
 C(PDBName=C12,ResName=RCX,ResNum=601_B)              31.76500000   24.60900000  136.50800000
 C(PDBName=C13,ResName=RCX,ResNum=601_B)              29.36900000   21.92100000  139.10400000
 C(PDBName=C14,ResName=RCX,ResNum=601_B)              28.52700000   22.99400000  138.82800000
 C(PDBName=C15,ResName=RCX,ResNum=601_B)              27.15100000   22.80300000  138.83500000
 C(PDBName=C16,ResName=RCX,ResNum=601_B)              26.61900000   21.55800000  139.12500000
 C(PDBName=C17,ResName=RCX,ResNum=601_B)              27.46500000   20.49100000  139.40800000
 C(PDBName=C18,ResName=RCX,ResNum=601_B)              28.83700000   20.68000000  139.40000000
 S(PDBName=S19,ResName=RCX,ResNum=601_B)              24.86100000   21.30700000  139.14600000
 O(PDBName=O20,ResName=RCX,ResNum=601_B)              24.29900000   21.84900000  140.43600000
 O(PDBName=O21,ResName=RCX,ResNum=601_B)              24.55700000   19.82500000  139.03000000
 C(PDBName=C22,ResName=RCX,ResNum=601_B)              24.10400000   22.18800000  137.79900000
 H(PDBName=H3,ResName=RCX,ResNum=601_B)               31.38980980   21.18579855  141.06626137
 H(PDBName=H6,ResName=RCX,ResNum=601_B)               34.97322282   22.74610125  138.59895413
 H(PDBName=H8,ResName=RCX,ResNum=601_B)               30.49619340   21.52438611  135.94774303
 H(PDBName=H9,ResName=RCX,ResNum=601_B)               29.96973569   22.57549485  133.77281826
 H(PDBName=H10,ResName=RCX,ResNum=601_B)              30.59888055   24.91688571  133.34187456
 H(PDBName=H11,ResName=RCX,ResNum=601_B)              31.75002638   26.22121278  135.08764276
 H(PDBName=H12,ResName=RCX,ResNum=601_B)              32.26327561   25.17547447  137.26676748
 H(PDBName=H14,ResName=RCX,ResNum=601_B)              28.93626112   23.95876319  138.61204321
 H(PDBName=H15,ResName=RCX,ResNum=601_B)              26.49886121   23.62231147  138.61512798
 H(PDBName=H17,ResName=RCX,ResNum=601_B)              27.05723202   19.52724777  139.63117462
 H(PDBName=H18,ResName=RCX,ResNum=601_B)              29.48843724   19.86126884  139.62407320
 H(PDBName=1H22,ResName=RCX,ResNum=601_B)             23.29025035   22.77562363  138.16968851
 H(PDBName=2H22,ResName=RCX,ResNum=601_B)             24.82758177   22.82951204  137.34096972
 H(PDBName=3H22,ResName=RCX,ResNum=601_B)             23.73877361   21.48885423  137.07601668

 
 1 2 1.5 4 1.5 7 1.0
 2 3 1.5 13 1.0
 3 5 1.5 23 1.0
 4 5 1.5 6 1.0
 5
 6 24 1.0
 7 8 1.5 12 1.5
 8 9 1.5 25 1.0
 9 10 1.5 26 1.0
 10 11 1.5 27 1.0
 11 12 1.5 28 1.0
 12 29 1.0
 13 14 1.5 18 2.0
 14 15 1.5 30 1.0
 15 16 2.0 31 1.0
 16 17 1.5 19 1.0
 17 18 2.0 32 1.0
 18 33 1.0
 19 20 1.5 21 1.5 22 1.0
 20
 21
 22 34 1.0 35 1.0 36 1.0
 23
 24
 25
 26
 27
 28
 29
 30
 31
 32
 33
 34
 35
 36


