%chk=Vioxx_b.chk
%chk=opt1.chk
# opt=loose b3lyp scrf=(solvent=water) def2svp em=gd3bj

MODEL        1

0 1
 C(PDBName=C1,ResName=RCX,ResNum=601_A)               75.22400000   14.25200000  130.80200000
 C(PDBName=C2,ResName=RCX,ResNum=601_A)               76.09300000   13.25200000  131.37600000
 C(PDBName=C3,ResName=RCX,ResNum=601_A)               75.24300000   12.23000000  131.83200000
 C(PDBName=C4,ResName=RCX,ResNum=601_A)               73.92600000   13.73200000  130.96100000
 O(PDBName=O5,ResName=RCX,ResNum=601_A)               73.98900000   12.55300000  131.56600000
 O(PDBName=O6,ResName=RCX,ResNum=601_A)               72.74300000   14.35200000  130.54000000
 C(PDBName=C7,ResName=RCX,ResNum=601_A)               75.59300000   15.60900000  130.13900000
 C(PDBName=C8,ResName=RCX,ResNum=601_A)               76.47900000   16.49100000  130.75400000
 C(PDBName=C9,ResName=RCX,ResNum=601_A)               76.79300000   17.71900000  130.14200000
 C(PDBName=C10,ResName=RCX,ResNum=601_A)              76.21600000   18.06300000  128.92000000
 C(PDBName=C11,ResName=RCX,ResNum=601_A)              75.32600000   17.18400000  128.30700000
 C(PDBName=C12,ResName=RCX,ResNum=601_A)              75.01600000   15.95800000  128.91800000
 C(PDBName=C13,ResName=RCX,ResNum=601_A)              77.59600000   13.24200000  131.51400000
 C(PDBName=C14,ResName=RCX,ResNum=601_A)              78.44200000   13.67000000  130.49600000
 C(PDBName=C15,ResName=RCX,ResNum=601_A)              79.82000000   13.62300000  130.68700000
 C(PDBName=C16,ResName=RCX,ResNum=601_A)              80.34000000   13.15000000  131.88000000
 C(PDBName=C17,ResName=RCX,ResNum=601_A)              79.48600000   12.71900000  132.88900000
 C(PDBName=C18,ResName=RCX,ResNum=601_A)              78.11800000   12.76000000  132.69800000
 S(PDBName=S19,ResName=RCX,ResNum=601_A)              82.09100000   13.07200000  132.16600000
 O(PDBName=O20,ResName=RCX,ResNum=601_A)              82.63900000   11.77000000  131.63200000
 O(PDBName=O21,ResName=RCX,ResNum=601_A)              82.35700000   13.17800000  133.65600000
 C(PDBName=C22,ResName=RCX,ResNum=601_A)              82.92000000   14.40000000  131.31700000
 H(PDBName=H3,ResName=RCX,ResNum=601_A)               75.56100000   11.33100000  132.31800000
 H(PDBName=H6,ResName=RCX,ResNum=601_A)               71.99400000   13.78800000  130.74900000
 H(PDBName=H8,ResName=RCX,ResNum=601_A)               76.92200000   16.23400000  131.69400000
 H(PDBName=H9,ResName=RCX,ResNum=601_A)               77.47700000   18.39100000  130.61600000
 H(PDBName=H10,ResName=RCX,ResNum=601_A)              76.45600000   18.99700000  128.45600000
 H(PDBName=H11,ResName=RCX,ResNum=601_A)              74.87800000   17.44300000  127.37000000
 H(PDBName=H12,ResName=RCX,ResNum=601_A)              74.33200000   15.28600000  128.44300000
 H(PDBName=H14,ResName=RCX,ResNum=601_A)              78.03700000   14.03200000  129.57400000
 H(PDBName=H15,ResName=RCX,ResNum=601_A)              80.47800000   13.95300000  129.91100000
 H(PDBName=H17,ResName=RCX,ResNum=601_A)              79.88700000   12.35600000  133.81200000
 H(PDBName=H18,ResName=RCX,ResNum=601_A)              77.46100000   12.41700000  133.47000000
 H(PDBName=1H22,ResName=RCX,ResNum=601_A)             83.80000000   14.67600000  131.86000000
 H(PDBName=2H22,ResName=RCX,ResNum=601_A)             83.19300000   14.07900000  130.33400000
 H(PDBName=3H22,ResName=RCX,ResNum=601_A)             82.26500000   15.24300000  131.24800000

 
 1 2 1.5 4 1.5 7 1.0
 2 3 1.5 13 1.0
 3 5 1.5 23 1.0
 4 5 1.5 6 1.0
 5
 6 24 1.0
 7 8 1.5 12 1.5
 8 9 1.5 25 1.0
 9 10 1.5 26 1.0
 10 11 1.5 27 1.0
 11 12 1.5 28 1.0
 12 29 1.0
 13 14 1.5 18 2.0
 14 15 1.5 30 1.0
 15 16 2.0 31 1.0
 16 17 1.5 19 1.0
 17 18 2.0 32 1.0
 18 33 1.0
 19 20 1.5 21 1.5 22 1.0
 20
 21
 22 34 1.0 35 1.0 36 1.0
 23
 24
 25
 26
 27
 28
 29
 30
 31
 32
 33
 34
 35
 36


